STAAD SPACE
START JOB INFORMATION
ENGINEER DATE 22-Aug-21
END JOB INFORMATION
INPUT WIDTH 79
UNIT METER KN
JOINT COORDINATES
1 0 0 0; 2 2.172 0 0; 3 5.804 0 0; 4 8.979 0 0; 5 12.217 0 0; 6 0 0 -4.153;
7 2.172 0 -4.153; 8 5.804 0 -4.153; 9 8.979 0 -4.153; 10 9.589 0 -4.153;
11 12.217 0 -4.153; 12 0 0 -6.109; 13 3.912 0 -6.109; 14 8.065 0 -6.109;
15 12.217 0 -6.109; 16 0 0 -10.566; 17 3.912 0 -10.566; 18 8.065 0 -10.566;
19 12.217 0 -10.566; 20 2.172 0 -6.109; 21 5.804 0 -6.109; 22 9.589 0 -6.109;
23 0 3.2 0; 24 2.172 3.2 0; 25 5.804 3.2 0; 26 8.979 3.2 0; 27 12.217 3.2 0;
28 0 3.2 -4.153; 29 2.172 3.2 -4.153; 30 5.804 3.2 -4.153; 31 8.979 3.2 -4.153;
32 9.589 3.2 -4.153; 33 12.217 3.2 -4.153; 34 0 3.2 -6.109;
35 3.912 3.2 -6.109; 36 8.065 3.2 -6.109; 37 12.217 3.2 -6.109;
38 0 3.2 -10.566; 39 3.912 3.2 -10.566; 40 8.065 3.2 -10.566;
41 12.217 3.2 -10.566; 42 2.172 3.2 -6.109; 43 5.804 3.2 -6.109;
44 9.589 3.2 -6.109; 45 0 6.2 0; 46 2.172 6.2 0; 47 5.804 6.2 0;
48 8.979 6.2 0; 49 12.217 6.2 0; 50 0 6.2 -4.153; 51 2.172 6.2 -4.153;
52 5.804 6.2 -4.153; 53 8.979 6.2 -4.153; 54 9.589 6.2 -4.153;
55 12.217 6.2 -4.153; 56 0 6.2 -6.109; 57 3.912 6.2 -6.109;
58 8.065 6.2 -6.109; 59 12.217 6.2 -6.109; 60 0 6.2 -10.566;
61 3.912 6.2 -10.566; 62 8.065 6.2 -10.566; 63 12.217 6.2 -10.566;
64 2.172 6.2 -6.109; 65 5.804 6.2 -6.109; 66 9.589 6.2 -6.109; 67 0 9.2 0;
68 2.172 9.2 0; 69 5.804 9.2 0; 70 8.979 9.2 0; 71 12.217 9.2 0;
72 0 9.2 -4.153; 73 2.172 9.2 -4.153; 74 5.804 9.2 -4.153; 75 8.979 9.2 -4.153;
# ... 11 like lines cut
MEMBER INCIDENCES
1 1 2; 2 2 3; 3 3 4; 4 4 5; 5 6 7; 6 7 8; 7 8 9; 8 9 11; 9 12 20; 10 13 21;
11 14 22; 12 16 17; 13 17 18; 14 18 19; 15 1 6; 16 2 7; 17 3 8; 18 4 9;
19 5 11; 20 6 12; 21 20 13; 22 7 20; 23 21 14; 24 8 21; 25 22 15; 26 10 22;
27 11 15; 28 12 16; 29 13 17; 30 14 18; 31 15 19; 32 1 23; 33 2 24; 34 3 25;
35 4 26; 36 5 27; 37 6 28; 38 7 29; 39 8 30; 40 9 31; 42 11 33; 43 12 34;
44 13 35; 45 14 36; 46 15 37; 47 16 38; 48 17 39; 49 18 40; 50 19 41; 54 23 24;
55 24 25; 56 25 26; 57 26 27; 58 28 29; 59 29 30; 60 30 31; 61 31 33; 62 34 42;
63 35 43; 64 36 44; 65 38 39; 66 39 40; 67 40 41; 68 23 28; 69 24 29; 70 25 30;
71 26 31; 72 27 33; 73 28 34; 74 42 35; 75 29 42; 76 43 36; 77 30 43; 78 44 37;
79 32 44; 80 33 37; 81 34 38; 82 35 39; 83 36 40; 84 37 41; 85 23 45; 86 24 46;
87 25 47; 88 26 48; 89 27 49; 90 28 50; 91 29 51; 92 30 52; 93 31 53; 95 33 55;
96 34 56; 97 35 57; 98 36 58; 99 37 59; 100 38 60; 101 39 61; 102 40 62;
103 41 63; 107 45 46; 108 46 47; 109 47 48; 110 48 49; 111 50 51; 112 51 52;
113 52 53; 114 53 55; 115 56 64; 116 57 65; 117 58 66; 118 60 61; 119 61 62;
120 62 63; 121 45 50; 122 46 51; 123 47 52; 124 48 53; 125 49 55; 126 50 56;
127 64 57; 128 51 64; 129 65 58; 130 52 65; 131 66 59; 132 54 66; 133 55 59;
134 56 60; 135 57 61; 136 58 62; 137 59 63; 138 45 67; 139 46 68; 140 47 69;
141 48 70; 142 49 71; 143 50 72; 144 51 73; 145 52 74; 146 53 75; 148 55 77;
149 56 78; 150 57 79; 151 58 80; 152 59 81; 153 60 82; 154 61 83; 155 62 84;
156 63 85; 160 67 68; 161 68 69; 162 69 70; 163 70 71; 164 72 73; 165 73 74;
# ... 9 like lines cut
ELEMENT INCIDENCES SHELL
235 29 30 25 24; 236 30 31 26 25; 237 31 33 27 26; 238 34 42 29 28;
239 42 43 30 29; 240 43 44 32 30; 241 44 37 33 32; 242 38 39 35 34;
243 39 40 36 35; 244 40 41 37 36; 246 51 52 47 46; 247 52 53 48 47;
248 53 55 49 48; 249 56 64 51 50; 250 64 65 52 51; 251 65 66 54 52;
252 66 59 55 54; 253 60 61 57 56; 254 61 62 58 57; 255 62 63 59 58;
257 73 74 69 68; 258 74 75 70 69; 259 75 77 71 70; 260 78 86 73 72;
261 86 87 74 73; 262 87 88 76 74; 263 88 81 77 76; 264 82 83 79 78;
265 83 84 80 79; 266 84 85 81 80; 267 110 111 109 108; 268 112 113 111 110;
ELEMENT PROPERTY
235 TO 244 246 TO 255 257 TO 268 THICKNESS 0.1
DEFINE MATERIAL START
ISOTROPIC CONCRETE
E 2.17185e+007
POISSON 0.17
DENSITY 23.5616
ALPHA 1e-005
DAMP 0.05
TYPE CONCRETE
STRENGTH FCU 27579
END DEFINE MATERIAL
CONSTANTS
MATERIAL CONCRETE ALL
MEMBER PROPERTY AMERICAN
1 TO 31 54 TO 84 107 TO 137 160 TO 190 216 TO 222 PRIS YD 0.4 ZD 0.25
MEMBER PROPERTY AMERICAN
32 TO 40 42 TO 50 85 TO 93 95 TO 103 138 TO 146 148 TO 156 191 TO 199 201 -
202 TO 215 PRIS YD 0.3 ZD 0.3
MEMBER OFFSET
1 TO 31 54 TO 84 107 TO 137 160 TO 190 216 TO 222 START 0 -0.15 0
1 TO 31 54 TO 84 107 TO 137 160 TO 190 216 TO 222 END 0 -0.15 0
142 153 156 210 211 214 215 END 0 0.05 0
SUPPORTS
89 TO 97 99 TO 107 FIXED
CUT OFF MODE SHAPE 10
DEFINE 1893 LOAD
ZONE 0.36 RF 3 I 1 SS 2 ST 1 DM 0.0005
SELFWEIGHT 1 
FLOOR WEIGHT
YRANGE 2 8 FLOAD 1.5
MEMBER WEIGHT
1 TO 4 9 13 TO 15 19 TO 21 27 29 31 UNI 17.07
6 8 10 11 16 17 22 23 25 26 30 UNI 8.535
54 TO 57 62 66 TO 68 72 TO 74 80 82 84 107 TO 110 115 119 TO 121 125 TO 127 -
133 135 137 UNI 15.85
59 61 63 64 69 70 75 76 78 79 83 112 114 116 117 122 123 128 129 131 132 -
136 UNI 7.925
65 81 118 134 UNI 2.3225
161 TO 163 171 TO 173 178 186 187 190 UNI 4.645
58 111 164 UNI 5.106 0.9
5 58 111 UNI 5.106 1.05 1.95
1 54 107 UNI 4.865
160 168 174 175 179 181 UNI 12.8
LOAD 1 LOADTYPE Dead  TITLE DL
SELFWEIGHT X 1 
SELFWEIGHT Y 1 
SELFWEIGHT Z 1 
FLOOR LOAD
YRANGE 2 10 FLOAD 3 GX
YRANGE 2 10 FLOAD 3 GY
YRANGE 2 10 FLOAD 3 GZ
MEMBER LOAD
1 TO 4 9 13 TO 15 19 TO 21 27 29 31 UNI GX 17.07
1 TO 4 9 13 TO 15 19 TO 21 27 29 31 UNI GY 17.07
1 TO 4 9 13 TO 15 19 TO 21 27 29 31 UNI GZ 17.07
6 8 10 11 16 17 22 23 25 26 30 UNI GX 8.535
6 8 10 11 16 17 22 23 25 26 30 UNI GY 8.535
6 8 10 11 16 17 22 23 25 26 30 UNI GZ 8.535
54 TO 57 62 66 TO 68 72 TO 74 80 82 84 107 TO 110 115 119 TO 121 125 TO 127 -
133 135 137 UNI GX 15.85
54 TO 57 62 66 TO 68 72 TO 74 80 82 84 107 TO 110 115 119 TO 121 125 TO 127 -
133 135 137 UNI GY 15.85
54 TO 57 62 66 TO 68 72 TO 74 80 82 84 107 TO 110 115 119 TO 121 125 TO 127 -
133 135 137 UNI GZ 15.85
59 61 63 64 69 70 75 76 78 79 83 112 114 116 117 122 123 128 129 131 132 -
136 UNI GX 7.925
59 61 63 64 69 70 75 76 78 79 83 112 114 116 117 122 123 128 129 131 132 -
136 UNI GY 7.925
59 61 63 64 69 70 75 76 78 79 83 112 114 116 117 122 123 128 129 131 132 -
136 UNI GZ 7.925
65 81 118 134 UNI GX 2.3225
65 81 118 134 UNI GY 2.3225
65 81 118 134 UNI GZ 2.3225
161 TO 163 171 TO 173 178 186 187 190 UNI GX 4.645
161 TO 163 171 TO 173 178 186 187 190 UNI GY 4.645
161 TO 163 171 TO 173 178 186 187 190 UNI GZ 4.645
58 111 164 UNI GX 5.106 0 0.9
58 111 164 UNI GY 5.106 0 0.9
58 111 164 UNI GZ 5.106 0 0.9
5 58 111 UNI GX 5.106 1.05 1.95
5 58 111 UNI GY 5.106 1.05 1.95
5 58 111 UNI GZ 5.106 1.05 1.95
1 54 107 UNI GX 4.865
1 54 107 UNI GY 4.865
1 54 107 UNI GZ 4.865
160 168 174 175 179 181 UNI GX 12.8
160 168 174 175 179 181 UNI GY 12.8
160 168 174 175 179 181 UNI GZ 12.8
MODAL CALCULATION REQUESTED
SPECTRUM CQC 1893 X 0.06 Z 0.06 ACC DAMP 0.05
SOIL TYPE 2
PERFORM ANALYSIS
FINISH
